Version 4
SHEET 1 880 680
WIRE 256 -16 32 -16
WIRE 96 64 64 64
WIRE 64 80 64 64
WIRE 256 80 256 -16
WIRE 368 80 336 80
WIRE 32 112 32 -16
WIRE 112 112 32 112
WIRE 176 128 176 64
WIRE 16 144 -48 144
WIRE 112 144 112 112
WIRE 112 144 96 144
WIRE 144 144 112 144
WIRE -48 160 -48 144
WIRE 368 160 368 80
WIRE 368 160 208 160
WIRE 144 176 112 176
WIRE 112 192 112 176
WIRE 112 192 -64 192
WIRE -64 208 -64 192
WIRE 176 224 176 192
WIRE -64 320 -64 288
FLAG 64 80 0
FLAG -64 320 0
FLAG -48 160 0
FLAG 176 224 0
SYMBOL Opamps\\OP07 176 96 R0
SYMATTR InstName U1
SYMBOL voltage 192 64 R90
WINDOW 0 -32 56 VBottom 2
WINDOW 3 32 56 VTop 2
WINDOW 123 0 0 Left 0
WINDOW 39 0 0 Left 0
SYMATTR InstName V1
SYMATTR Value 5
SYMBOL voltage -64 192 R0
WINDOW 123 0 0 Left 0
WINDOW 39 0 0 Left 0
SYMATTR InstName V2
SYMATTR Value 5
SYMBOL res 112 128 R90
WINDOW 0 0 56 VBottom 2
WINDOW 3 32 56 VTop 2
SYMATTR InstName R1
SYMATTR Value 10k
SYMBOL res 352 64 R90
WINDOW 0 0 56 VBottom 2
WINDOW 3 32 56 VTop 2
SYMATTR InstName R2
SYMATTR Value 270k
TEXT -98 344 Left 2 !.dc V2 0 1
