Version 4
SHEET 1 1648 1044
WIRE 16 32 -96 32
WIRE 240 32 96 32
WIRE 592 32 240 32
WIRE 1376 96 1040 96
WIRE 240 112 240 32
WIRE -96 176 -96 32
WIRE 240 208 240 176
WIRE 1376 288 1376 96
WIRE -96 304 -96 256
WIRE 240 336 240 288
WIRE 592 336 592 32
WIRE 1040 336 1040 96
WIRE 1040 336 592 336
WIRE 1184 336 1184 240
WIRE -240 384 -384 384
WIRE -224 384 -240 384
WIRE 1040 448 592 448
WIRE -144 496 -144 384
WIRE -96 496 -144 496
WIRE 16 496 -16 496
WIRE -384 512 -384 464
WIRE 128 528 80 528
WIRE 176 528 128 528
WIRE 272 528 256 528
WIRE 592 528 592 448
WIRE 592 528 272 528
WIRE -240 544 -240 384
WIRE 16 544 16 496
WIRE -144 560 -144 496
WIRE -144 560 -208 560
WIRE 1040 560 1040 448
WIRE 1184 560 1184 416
WIRE 1184 560 1040 560
WIRE 1376 560 1376 368
WIRE 1376 560 1184 560
WIRE -272 576 -432 576
WIRE 80 592 80 528
WIRE 80 592 -208 592
WIRE 128 592 128 528
WIRE 272 592 272 528
WIRE -240 704 -240 608
WIRE 128 736 128 656
WIRE 272 736 272 672
FLAG 240 336 0
FLAG -96 304 0
FLAG 272 736 0
FLAG 128 736 0
FLAG -240 704 0
FLAG 16 544 0
FLAG -384 512 0
SYMBOL voltage 240 192 R0
WINDOW 123 0 0 Left 0
WINDOW 39 24 124 Left 2
SYMATTR SpiceLine Rser=3
SYMATTR InstName V1
SYMATTR Value SINE(0 24 60)
SYMBOL voltage -96 160 R0
WINDOW 123 0 0 Left 0
WINDOW 39 24 124 Left 2
SYMATTR SpiceLine Rser=3
SYMATTR InstName V2
SYMATTR Value 12
SYMBOL cap 224 112 R0
SYMATTR InstName C1
SYMATTR Value 1000µ
SYMBOL res 0 48 R270
WINDOW 0 32 56 VTop 2
WINDOW 3 0 56 VBottom 2
SYMATTR InstName R1
SYMATTR Value 10
SYMBOL cap 1168 176 R0
SYMATTR InstName C2
SYMATTR Value 1µ
SYMBOL res 1168 320 R0
SYMATTR InstName R2
SYMATTR Value 2k
SYMBOL res 256 576 R0
SYMATTR InstName R3
SYMATTR Value 47
SYMBOL res 1360 272 R0
SYMATTR InstName R4
SYMATTR Value {R4}
SYMBOL cap 112 592 R0
SYMATTR InstName C3
SYMATTR Value 10µ
SYMBOL res 272 512 R90
WINDOW 0 0 56 VBottom 2
WINDOW 3 32 56 VTop 2
SYMATTR InstName R5
SYMATTR Value 330k
SYMBOL res 0 480 R90
WINDOW 0 0 56 VBottom 2
WINDOW 3 32 56 VTop 2
SYMATTR InstName R9
SYMATTR Value 20k
SYMBOL res -128 368 R90
WINDOW 0 0 56 VBottom 2
WINDOW 3 32 56 VTop 2
SYMATTR InstName R11
SYMATTR Value 1000k
SYMBOL voltage -384 368 R0
WINDOW 0 -32 56 VBottom 2
WINDOW 3 32 56 VTop 2
WINDOW 123 0 0 Left 0
WINDOW 39 0 0 Left 0
SYMATTR InstName V4
SYMATTR Value 5
SYMBOL Opamps\\OP07 -240 512 M0
SYMATTR InstName U2
TEXT 1320 48 Left 2 !.step param R4 600 3000
TEXT -296 -64 Left 2 !.tran 30m
